[VMEM] WARNING: physical memory size is smaller than virtual memory size.

*** ChampSim Multicore Out-of-Order Simulator ***
Warmup Instructions: 50000000
Simulation Instructions: 100000000
Number of CPUs: 1
Page size: 4096

Initialize SIGNATURE TABLE
ST_SET: 1
ST_WAY: 256
ST_TAG_BIT: 16

Initialize PATTERN TABLE
PT_SET: 512
PT_WAY: 4
SIG_DELTA_BIT: 7
C_SIG_BIT: 4
C_DELTA_BIT: 4

Initialize PREFETCH FILTER
FILTER_SET: 1024
Off-chip DRAM Size: 16 GiB Channels: 1 Width: 64-bit Data Rate: 3205 MT/s
Heartbeat CPU 0 instructions: 10000000 cycles: 2511012 heartbeat IPC: 3.982 cumulative IPC: 3.982 (Simulation time: 00 hr 03 min 10 sec)
Heartbeat CPU 0 instructions: 20000002 cycles: 5014770 heartbeat IPC: 3.994 cumulative IPC: 3.988 (Simulation time: 00 hr 06 min 17 sec)
Heartbeat CPU 0 instructions: 30000005 cycles: 7518738 heartbeat IPC: 3.994 cumulative IPC: 3.99 (Simulation time: 00 hr 09 min 24 sec)
Heartbeat CPU 0 instructions: 40000005 cycles: 10022459 heartbeat IPC: 3.994 cumulative IPC: 3.991 (Simulation time: 00 hr 12 min 46 sec)
Warmup finished CPU 0 instructions: 50000004 cycles: 12526445 cumulative IPC: 3.992 (Simulation time: 00 hr 16 min 05 sec)
Warmup complete CPU 0 instructions: 50000004 cycles: 12526445 cumulative IPC: 3.992 (Simulation time: 00 hr 16 min 05 sec)
Heartbeat CPU 0 instructions: 50000009 cycles: 12526446 heartbeat IPC: 3.994 cumulative IPC: 5 (Simulation time: 00 hr 16 min 05 sec)
Heartbeat CPU 0 instructions: 60000009 cycles: 16070573 heartbeat IPC: 2.822 cumulative IPC: 2.822 (Simulation time: 00 hr 19 min 49 sec)
Heartbeat CPU 0 instructions: 70000010 cycles: 19949665 heartbeat IPC: 2.578 cumulative IPC: 2.694 (Simulation time: 00 hr 23 min 56 sec)
Heartbeat CPU 0 instructions: 80000011 cycles: 24319448 heartbeat IPC: 2.288 cumulative IPC: 2.544 (Simulation time: 00 hr 28 min 29 sec)
Heartbeat CPU 0 instructions: 90000011 cycles: 28089221 heartbeat IPC: 2.653 cumulative IPC: 2.57 (Simulation time: 00 hr 32 min 18 sec)
Heartbeat CPU 0 instructions: 100000014 cycles: 31541462 heartbeat IPC: 2.897 cumulative IPC: 2.63 (Simulation time: 00 hr 35 min 58 sec)
Heartbeat CPU 0 instructions: 110000015 cycles: 34427074 heartbeat IPC: 3.465 cumulative IPC: 2.74 (Simulation time: 00 hr 39 min 32 sec)
Heartbeat CPU 0 instructions: 120000019 cycles: 37245693 heartbeat IPC: 3.548 cumulative IPC: 2.832 (Simulation time: 00 hr 43 min 07 sec)
Heartbeat CPU 0 instructions: 130000020 cycles: 40067549 heartbeat IPC: 3.544 cumulative IPC: 2.905 (Simulation time: 00 hr 46 min 42 sec)
Heartbeat CPU 0 instructions: 140000021 cycles: 42877029 heartbeat IPC: 3.559 cumulative IPC: 2.965 (Simulation time: 00 hr 50 min 05 sec)
Simulation finished CPU 0 instructions: 100000003 cycles: 33154631 cumulative IPC: 3.016 (Simulation time: 00 hr 53 min 34 sec)
Simulation complete CPU 0 instructions: 100000003 cycles: 33154631 cumulative IPC: 3.016 (Simulation time: 00 hr 53 min 34 sec)

ChampSim completed all CPUs

=== Simulation ===
CPU 0 runs ./traces/435.gromacs-228B.champsimtrace.xz

Region of Interest Statistics

CPU 0 cumulative IPC: 3.016 instructions: 100000003 cycles: 33154631
CPU 0 Branch Prediction Accuracy: 91.55% MPKI: 1.331 Average ROB Occupancy at Mispredict: 99.25
Branch type MPKI
BRANCH_DIRECT_JUMP: 0.00116
BRANCH_INDIRECT: 6e-05
BRANCH_CONDITIONAL: 1.327
BRANCH_DIRECT_CALL: 0.001
BRANCH_INDIRECT_CALL: 4e-05
BRANCH_RETURN: 0.00108

cpu0->cpu0_STLB TOTAL        ACCESS:     134485 HIT:     133143 MISS:       1342 MSHR_MERGE:          0
cpu0->cpu0_STLB LOAD         ACCESS:     134485 HIT:     133143 MISS:       1342 MSHR_MERGE:          0
cpu0->cpu0_STLB RFO          ACCESS:          0 HIT:          0 MISS:          0 MSHR_MERGE:          0
cpu0->cpu0_STLB PREFETCH     ACCESS:          0 HIT:          0 MISS:          0 MSHR_MERGE:          0
cpu0->cpu0_STLB WRITE        ACCESS:          0 HIT:          0 MISS:          0 MSHR_MERGE:          0
cpu0->cpu0_STLB TRANSLATION  ACCESS:          0 HIT:          0 MISS:          0 MSHR_MERGE:          0
cpu0->cpu0_STLB PREFETCH REQUESTED:          0 ISSUED:          0 USEFUL:          0 USELESS:          0
cpu0->cpu0_STLB AVERAGE MISS LATENCY: 237.4 cycles
cpu0->cpu0_L2C TOTAL        ACCESS:    2326309 HIT:    1129396 MISS:    1196913 MSHR_MERGE:      39108
cpu0->cpu0_L2C LOAD         ACCESS:     523376 HIT:     423521 MISS:      99855 MSHR_MERGE:       3113
cpu0->cpu0_L2C RFO          ACCESS:      37462 HIT:       3336 MISS:      34126 MSHR_MERGE:          0
cpu0->cpu0_L2C PREFETCH     ACCESS:    1533020 HIT:     504894 MISS:    1028126 MSHR_MERGE:      35995
cpu0->cpu0_L2C WRITE        ACCESS:     231921 HIT:     197314 MISS:      34607 MSHR_MERGE:          0
cpu0->cpu0_L2C TRANSLATION  ACCESS:        530 HIT:        331 MISS:        199 MSHR_MERGE:          0
cpu0->cpu0_L2C PREFETCH REQUESTED:    1977874 ISSUED:    1533020 USEFUL:      86469 USELESS:       3469
cpu0->cpu0_L2C AVERAGE MISS LATENCY: 63.93 cycles
cpu0->cpu0_L1I TOTAL        ACCESS:   15251770 HIT:   15250362 MISS:       1408 MSHR_MERGE:        482
cpu0->cpu0_L1I LOAD         ACCESS:   15251770 HIT:   15250362 MISS:       1408 MSHR_MERGE:        482
cpu0->cpu0_L1I RFO          ACCESS:          0 HIT:          0 MISS:          0 MSHR_MERGE:          0
cpu0->cpu0_L1I PREFETCH     ACCESS:          0 HIT:          0 MISS:          0 MSHR_MERGE:          0
cpu0->cpu0_L1I WRITE        ACCESS:          0 HIT:          0 MISS:          0 MSHR_MERGE:          0
cpu0->cpu0_L1I TRANSLATION  ACCESS:          0 HIT:          0 MISS:          0 MSHR_MERGE:          0
cpu0->cpu0_L1I PREFETCH REQUESTED:          0 ISSUED:          0 USEFUL:          0 USELESS:          0
cpu0->cpu0_L1I AVERAGE MISS LATENCY: 148.9 cycles
cpu0->cpu0_L1D TOTAL        ACCESS:   25255545 HIT:   23576308 MISS:    1679237 MSHR_MERGE:    1118769
cpu0->cpu0_L1D LOAD         ACCESS:   12980651 HIT:   11738662 MISS:    1241989 MSHR_MERGE:     719517
cpu0->cpu0_L1D RFO          ACCESS:          0 HIT:          0 MISS:          0 MSHR_MERGE:          0
cpu0->cpu0_L1D PREFETCH     ACCESS:          0 HIT:          0 MISS:          0 MSHR_MERGE:          0
cpu0->cpu0_L1D WRITE        ACCESS:   12273545 HIT:   11836827 MISS:     436718 MSHR_MERGE:     399252
cpu0->cpu0_L1D TRANSLATION  ACCESS:       1349 HIT:        819 MISS:        530 MSHR_MERGE:          0
cpu0->cpu0_L1D PREFETCH REQUESTED:          0 ISSUED:          0 USEFUL:          0 USELESS:          0
cpu0->cpu0_L1D AVERAGE MISS LATENCY: 27.05 cycles
cpu0->cpu0_ITLB TOTAL        ACCESS:   11883115 HIT:   11882975 MISS:        140 MSHR_MERGE:         84
cpu0->cpu0_ITLB LOAD         ACCESS:   11883115 HIT:   11882975 MISS:        140 MSHR_MERGE:         84
cpu0->cpu0_ITLB RFO          ACCESS:          0 HIT:          0 MISS:          0 MSHR_MERGE:          0
cpu0->cpu0_ITLB PREFETCH     ACCESS:          0 HIT:          0 MISS:          0 MSHR_MERGE:          0
cpu0->cpu0_ITLB WRITE        ACCESS:          0 HIT:          0 MISS:          0 MSHR_MERGE:          0
cpu0->cpu0_ITLB TRANSLATION  ACCESS:          0 HIT:          0 MISS:          0 MSHR_MERGE:          0
cpu0->cpu0_ITLB PREFETCH REQUESTED:          0 ISSUED:          0 USEFUL:          0 USELESS:          0
cpu0->cpu0_ITLB AVERAGE MISS LATENCY: 345.6 cycles
cpu0->cpu0_DTLB TOTAL        ACCESS:   22474137 HIT:   22189031 MISS:     285106 MSHR_MERGE:     150677
cpu0->cpu0_DTLB LOAD         ACCESS:   22474137 HIT:   22189031 MISS:     285106 MSHR_MERGE:     150677
cpu0->cpu0_DTLB RFO          ACCESS:          0 HIT:          0 MISS:          0 MSHR_MERGE:          0
cpu0->cpu0_DTLB PREFETCH     ACCESS:          0 HIT:          0 MISS:          0 MSHR_MERGE:          0
cpu0->cpu0_DTLB WRITE        ACCESS:          0 HIT:          0 MISS:          0 MSHR_MERGE:          0
cpu0->cpu0_DTLB TRANSLATION  ACCESS:          0 HIT:          0 MISS:          0 MSHR_MERGE:          0
cpu0->cpu0_DTLB PREFETCH REQUESTED:          0 ISSUED:          0 USEFUL:          0 USELESS:          0
cpu0->cpu0_DTLB AVERAGE MISS LATENCY: 7.239 cycles
cpu0->LLC TOTAL        ACCESS:    1192329 HIT:     976551 MISS:     215778 MSHR_MERGE:     109321
cpu0->LLC LOAD         ACCESS:      96738 HIT:      90784 MISS:       5954 MSHR_MERGE:        641
cpu0->LLC RFO          ACCESS:      34126 HIT:       5399 MISS:      28727 MSHR_MERGE:          0
cpu0->LLC PREFETCH     ACCESS:     986294 HIT:     806739 MISS:     179555 MSHR_MERGE:     108680
cpu0->LLC WRITE        ACCESS:      74972 HIT:      73578 MISS:       1394 MSHR_MERGE:          0
cpu0->LLC TRANSLATION  ACCESS:        199 HIT:         51 MISS:        148 MSHR_MERGE:          0
cpu0->LLC PREFETCH REQUESTED:          0 ISSUED:          0 USEFUL:          0 USELESS:          0
cpu0->LLC AVERAGE MISS LATENCY: 231.7 cycles

DRAM Statistics

Channel 0 RQ ROW_BUFFER_HIT:       4757
  ROW_BUFFER_MISS:     100235
  AVG DBUS CONGESTED CYCLE: 9.882
Channel 0 WQ ROW_BUFFER_HIT:       8322
  ROW_BUFFER_MISS:      31098
  FULL:          0
Channel 0 REFRESHES ISSUED:       2763
