[VMEM] WARNING: physical memory size is smaller than virtual memory size.

*** ChampSim Multicore Out-of-Order Simulator ***
Warmup Instructions: 50000000
Simulation Instructions: 100000000
Number of CPUs: 1
Page size: 4096

Initialize SIGNATURE TABLE
ST_SET: 1
ST_WAY: 256
ST_TAG_BIT: 16

Initialize PATTERN TABLE
PT_SET: 512
PT_WAY: 4
SIG_DELTA_BIT: 7
C_SIG_BIT: 4
C_DELTA_BIT: 4

Initialize PREFETCH FILTER
FILTER_SET: 1024
Off-chip DRAM Size: 16 GiB Channels: 1 Width: 64-bit Data Rate: 3205 MT/s
Heartbeat CPU 0 instructions: 10000004 cycles: 4512297 heartbeat IPC: 2.216 cumulative IPC: 2.216 (Simulation time: 00 hr 05 min 42 sec)
Heartbeat CPU 0 instructions: 20000008 cycles: 9020115 heartbeat IPC: 2.218 cumulative IPC: 2.217 (Simulation time: 00 hr 11 min 45 sec)
Heartbeat CPU 0 instructions: 30000008 cycles: 13530269 heartbeat IPC: 2.217 cumulative IPC: 2.217 (Simulation time: 00 hr 17 min 50 sec)
Heartbeat CPU 0 instructions: 40000012 cycles: 18039520 heartbeat IPC: 2.218 cumulative IPC: 2.217 (Simulation time: 00 hr 23 min 49 sec)
Warmup finished CPU 0 instructions: 50000000 cycles: 22545186 cumulative IPC: 2.218 (Simulation time: 00 hr 29 min 31 sec)
Warmup complete CPU 0 instructions: 50000000 cycles: 22545186 cumulative IPC: 2.218 (Simulation time: 00 hr 29 min 31 sec)
Heartbeat CPU 0 instructions: 50000015 cycles: 22545189 heartbeat IPC: 2.219 cumulative IPC: 5 (Simulation time: 00 hr 29 min 31 sec)
Heartbeat CPU 0 instructions: 60000017 cycles: 34130854 heartbeat IPC: 0.8631 cumulative IPC: 0.8631 (Simulation time: 00 hr 41 min 12 sec)
Heartbeat CPU 0 instructions: 70000017 cycles: 45711120 heartbeat IPC: 0.8635 cumulative IPC: 0.8633 (Simulation time: 00 hr 52 min 56 sec)
Heartbeat CPU 0 instructions: 80000018 cycles: 57371313 heartbeat IPC: 0.8576 cumulative IPC: 0.8614 (Simulation time: 01 hr 02 min 13 sec)
Heartbeat CPU 0 instructions: 90000018 cycles: 68981377 heartbeat IPC: 0.8613 cumulative IPC: 0.8614 (Simulation time: 01 hr 06 min 02 sec)
Heartbeat CPU 0 instructions: 100000022 cycles: 80634686 heartbeat IPC: 0.8581 cumulative IPC: 0.8607 (Simulation time: 01 hr 09 min 27 sec)
Heartbeat CPU 0 instructions: 110000022 cycles: 92264819 heartbeat IPC: 0.8598 cumulative IPC: 0.8606 (Simulation time: 01 hr 13 min 19 sec)
Heartbeat CPU 0 instructions: 120000025 cycles: 103843353 heartbeat IPC: 0.8637 cumulative IPC: 0.861 (Simulation time: 01 hr 17 min 11 sec)
Heartbeat CPU 0 instructions: 130000025 cycles: 115476974 heartbeat IPC: 0.8596 cumulative IPC: 0.8608 (Simulation time: 01 hr 20 min 54 sec)
Heartbeat CPU 0 instructions: 140000025 cycles: 127108378 heartbeat IPC: 0.8597 cumulative IPC: 0.8607 (Simulation time: 01 hr 24 min 21 sec)
Simulation finished CPU 0 instructions: 100000000 cycles: 116202235 cumulative IPC: 0.8606 (Simulation time: 01 hr 28 min 01 sec)
Simulation complete CPU 0 instructions: 100000000 cycles: 116202235 cumulative IPC: 0.8606 (Simulation time: 01 hr 28 min 01 sec)

ChampSim completed all CPUs

=== Simulation ===
CPU 0 runs ./traces/649.fotonik3d_s-10881B.champsimtrace.xz

Region of Interest Statistics

CPU 0 cumulative IPC: 0.8606 instructions: 100000000 cycles: 116202235
CPU 0 Branch Prediction Accuracy: 93.33% MPKI: 0.8021 Average ROB Occupancy at Mispredict: 262.9
Branch type MPKI
BRANCH_DIRECT_JUMP: 0
BRANCH_INDIRECT: 0
BRANCH_CONDITIONAL: 0.8021
BRANCH_DIRECT_CALL: 0
BRANCH_INDIRECT_CALL: 0
BRANCH_RETURN: 0

cpu0->cpu0_STLB TOTAL        ACCESS:     533976 HIT:     194389 MISS:     339587 MSHR_MERGE:          0
cpu0->cpu0_STLB LOAD         ACCESS:     533976 HIT:     194389 MISS:     339587 MSHR_MERGE:          0
cpu0->cpu0_STLB RFO          ACCESS:          0 HIT:          0 MISS:          0 MSHR_MERGE:          0
cpu0->cpu0_STLB PREFETCH     ACCESS:          0 HIT:          0 MISS:          0 MSHR_MERGE:          0
cpu0->cpu0_STLB WRITE        ACCESS:          0 HIT:          0 MISS:          0 MSHR_MERGE:          0
cpu0->cpu0_STLB TRANSLATION  ACCESS:          0 HIT:          0 MISS:          0 MSHR_MERGE:          0
cpu0->cpu0_STLB PREFETCH REQUESTED:          0 ISSUED:          0 USEFUL:          0 USELESS:          0
cpu0->cpu0_STLB AVERAGE MISS LATENCY: 233.4 cycles
cpu0->cpu0_L2C TOTAL        ACCESS:    7142886 HIT:     866130 MISS:    6276756 MSHR_MERGE:      34758
cpu0->cpu0_L2C LOAD         ACCESS:    1924015 HIT:     538109 MISS:    1385906 MSHR_MERGE:      10198
cpu0->cpu0_L2C RFO          ACCESS:          0 HIT:          0 MISS:          0 MSHR_MERGE:          0
cpu0->cpu0_L2C PREFETCH     ACCESS:    3934129 HIT:        272 MISS:    3933857 MSHR_MERGE:      24560
cpu0->cpu0_L2C WRITE        ACCESS:     971454 HIT:     321020 MISS:     650434 MSHR_MERGE:          0
cpu0->cpu0_L2C TRANSLATION  ACCESS:     313288 HIT:       6729 MISS:     306559 MSHR_MERGE:          0
cpu0->cpu0_L2C PREFETCH REQUESTED:    3936850 ISSUED:    3934125 USEFUL:     548195 USELESS:     148768
cpu0->cpu0_L2C AVERAGE MISS LATENCY: 55.46 cycles
cpu0->cpu0_L1I TOTAL        ACCESS:   23497904 HIT:   23497904 MISS:          0 MSHR_MERGE:          0
cpu0->cpu0_L1I LOAD         ACCESS:   23497904 HIT:   23497904 MISS:          0 MSHR_MERGE:          0
cpu0->cpu0_L1I RFO          ACCESS:          0 HIT:          0 MISS:          0 MSHR_MERGE:          0
cpu0->cpu0_L1I PREFETCH     ACCESS:          0 HIT:          0 MISS:          0 MSHR_MERGE:          0
cpu0->cpu0_L1I WRITE        ACCESS:          0 HIT:          0 MISS:          0 MSHR_MERGE:          0
cpu0->cpu0_L1I TRANSLATION  ACCESS:          0 HIT:          0 MISS:          0 MSHR_MERGE:          0
cpu0->cpu0_L1I PREFETCH REQUESTED:          0 ISSUED:          0 USEFUL:          0 USELESS:          0
cpu0->cpu0_L1I AVERAGE MISS LATENCY: - cycles
cpu0->cpu0_L1D TOTAL        ACCESS:   54176440 HIT:   51707285 MISS:    2469155 MSHR_MERGE:     231851
cpu0->cpu0_L1D LOAD         ACCESS:   47425042 HIT:   45269176 MISS:    2155866 MSHR_MERGE:     231850
cpu0->cpu0_L1D RFO          ACCESS:          0 HIT:          0 MISS:          0 MSHR_MERGE:          0
cpu0->cpu0_L1D PREFETCH     ACCESS:          0 HIT:          0 MISS:          0 MSHR_MERGE:          0
cpu0->cpu0_L1D WRITE        ACCESS:    6411307 HIT:    6411307 MISS:          0 MSHR_MERGE:          0
cpu0->cpu0_L1D TRANSLATION  ACCESS:     340091 HIT:      26802 MISS:     313289 MSHR_MERGE:          1
cpu0->cpu0_L1D PREFETCH REQUESTED:          0 ISSUED:          0 USEFUL:          0 USELESS:          0
cpu0->cpu0_L1D AVERAGE MISS LATENCY: 65.72 cycles
cpu0->cpu0_ITLB TOTAL        ACCESS:   20542010 HIT:   20542010 MISS:          0 MSHR_MERGE:          0
cpu0->cpu0_ITLB LOAD         ACCESS:   20542010 HIT:   20542010 MISS:          0 MSHR_MERGE:          0
cpu0->cpu0_ITLB RFO          ACCESS:          0 HIT:          0 MISS:          0 MSHR_MERGE:          0
cpu0->cpu0_ITLB PREFETCH     ACCESS:          0 HIT:          0 MISS:          0 MSHR_MERGE:          0
cpu0->cpu0_ITLB WRITE        ACCESS:          0 HIT:          0 MISS:          0 MSHR_MERGE:          0
cpu0->cpu0_ITLB TRANSLATION  ACCESS:          0 HIT:          0 MISS:          0 MSHR_MERGE:          0
cpu0->cpu0_ITLB PREFETCH REQUESTED:          0 ISSUED:          0 USEFUL:          0 USELESS:          0
cpu0->cpu0_ITLB AVERAGE MISS LATENCY: - cycles
cpu0->cpu0_DTLB TOTAL        ACCESS:   52575143 HIT:   51916518 MISS:     658625 MSHR_MERGE:     124649
cpu0->cpu0_DTLB LOAD         ACCESS:   52575143 HIT:   51916518 MISS:     658625 MSHR_MERGE:     124649
cpu0->cpu0_DTLB RFO          ACCESS:          0 HIT:          0 MISS:          0 MSHR_MERGE:          0
cpu0->cpu0_DTLB PREFETCH     ACCESS:          0 HIT:          0 MISS:          0 MSHR_MERGE:          0
cpu0->cpu0_DTLB WRITE        ACCESS:          0 HIT:          0 MISS:          0 MSHR_MERGE:          0
cpu0->cpu0_DTLB TRANSLATION  ACCESS:          0 HIT:          0 MISS:          0 MSHR_MERGE:          0
cpu0->cpu0_DTLB PREFETCH REQUESTED:          0 ISSUED:          0 USEFUL:          0 USELESS:          0
cpu0->cpu0_DTLB AVERAGE MISS LATENCY: 154.1 cycles
cpu0->LLC TOTAL        ACCESS:    6554010 HIT:    4260277 MISS:    2293733 MSHR_MERGE:     141260
cpu0->LLC LOAD         ACCESS:    1375707 HIT:    1006867 MISS:     368840 MSHR_MERGE:      33365
cpu0->LLC RFO          ACCESS:          0 HIT:          0 MISS:          0 MSHR_MERGE:          0
cpu0->LLC PREFETCH     ACCESS:    3900329 HIT:    1992122 MISS:    1908207 MSHR_MERGE:     107895
cpu0->LLC WRITE        ACCESS:     971415 HIT:     970946 MISS:        469 MSHR_MERGE:          0
cpu0->LLC TRANSLATION  ACCESS:     306559 HIT:     290342 MISS:      16217 MSHR_MERGE:          0
cpu0->LLC PREFETCH REQUESTED:          0 ISSUED:          0 USEFUL:          0 USELESS:          0
cpu0->LLC AVERAGE MISS LATENCY: 260.5 cycles

DRAM Statistics

Channel 0 RQ ROW_BUFFER_HIT:     286768
  ROW_BUFFER_MISS:    1865232
  AVG DBUS CONGESTED CYCLE: 7.016
Channel 0 WQ ROW_BUFFER_HIT:     204456
  ROW_BUFFER_MISS:     767444
  FULL:          0
Channel 0 REFRESHES ISSUED:       9684
