[VMEM] WARNING: physical memory size is smaller than virtual memory size.

*** ChampSim Multicore Out-of-Order Simulator ***
Warmup Instructions: 50000000
Simulation Instructions: 100000000
Number of CPUs: 1
Page size: 4096

Initialize SIGNATURE TABLE
ST_SET: 1
ST_WAY: 256
ST_TAG_BIT: 16

Initialize PATTERN TABLE
PT_SET: 512
PT_WAY: 4
SIG_DELTA_BIT: 7
C_SIG_BIT: 4
C_DELTA_BIT: 4

Initialize PREFETCH FILTER
FILTER_SET: 1024
Off-chip DRAM Size: 16 GiB Channels: 1 Width: 64-bit Data Rate: 3205 MT/s
Heartbeat CPU 0 instructions: 10000000 cycles: 2511012 heartbeat IPC: 3.982 cumulative IPC: 3.982 (Simulation time: 00 hr 03 min 16 sec)
Heartbeat CPU 0 instructions: 20000002 cycles: 5014770 heartbeat IPC: 3.994 cumulative IPC: 3.988 (Simulation time: 00 hr 06 min 23 sec)
Heartbeat CPU 0 instructions: 30000005 cycles: 7518741 heartbeat IPC: 3.994 cumulative IPC: 3.99 (Simulation time: 00 hr 09 min 19 sec)
Heartbeat CPU 0 instructions: 40000005 cycles: 10022459 heartbeat IPC: 3.994 cumulative IPC: 3.991 (Simulation time: 00 hr 12 min 20 sec)
Warmup finished CPU 0 instructions: 50000004 cycles: 12526455 cumulative IPC: 3.992 (Simulation time: 00 hr 15 min 31 sec)
Warmup complete CPU 0 instructions: 50000004 cycles: 12526455 cumulative IPC: 3.992 (Simulation time: 00 hr 15 min 31 sec)
Heartbeat CPU 0 instructions: 50000009 cycles: 12526456 heartbeat IPC: 3.994 cumulative IPC: 5 (Simulation time: 00 hr 15 min 31 sec)
Heartbeat CPU 0 instructions: 60000009 cycles: 16071702 heartbeat IPC: 2.821 cumulative IPC: 2.821 (Simulation time: 00 hr 19 min 31 sec)
Heartbeat CPU 0 instructions: 70000010 cycles: 19955875 heartbeat IPC: 2.575 cumulative IPC: 2.692 (Simulation time: 00 hr 23 min 17 sec)
[GHR] Cannot find a replacement victim!
